Circuit: * E:\UA\OneDrive - Universidade de Aveiro\UA\SIE\2ª Tentativa\Prática\SIE_ProjectoTres\Booster_0_10.asc

Direct Newton iteration for .op point succeeded.
Ignoring empty pin current: Ix(u1:1)
Ignoring empty pin current: Ix(u1:2)
Ignoring empty pin current: Ix(u1:1)
Ignoring empty pin current: Ix(u1:2)

Date: Fri Mar 26 11:38:04 2021
Total elapsed time: 0.344 seconds.

tnom = 27
temp = 27
method = modified trap
totiter = 72839
traniter = 72836
tranpoints = 36419
accept = 24218
rejected = 12201
matrix size = 4
fillins = 1
solver = Normal
Matrix Compiler1: off  [0.0]/0.0/0.0
Matrix Compiler2: 222 bytes object code size  0.0/0.0/[0.0]

