Circuit: * E:\UA\OneDrive - Universidade de Aveiro\UA\SIE\2ª Tentativa\Prática\SIE_ProjectoTres\rail-to-rail.asc

Direct Newton iteration for .op point succeeded.

Date: Tue Mar 23 15:18:36 2021
Total elapsed time: 0.062 seconds.

tnom = 27
temp = 27
method = trap
totiter = 3954
traniter = 0
tranpoints = 0
accept = 0
rejected = 0
matrix size = 10
fillins = 1
solver = Normal
Matrix Compiler1:      23 opcodes  0.1/0.1/[0.1]
Matrix Compiler2: 748 bytes object code size  0.1/0.1/[0.1]

